
 PCMODEL  v10.0   1.00000     0.00000

 18 18  0  0  0  0              1 V2000
    0.0000    0.0000    0.0000 C   0  0  0  0  0  0 
    1.5263    0.0000    0.0000 C   0  0  0  0  0  0 
    2.0891    1.4188    0.0000 C   0  0  0  0  0  0 
    1.5263    2.2474    1.1517 C   0  0  0  0  0  0 
   -0.0000    2.2474    1.1517 C   0  0  0  0  0  0 
   -0.5628    0.8286    1.1517 C   0  0  0  0  0  0 
   -0.3689   -1.0293    0.0714 H   0  0  0  0  0  0 
   -0.3643    0.4050   -0.9522 H   0  0  0  0  0  0 
    1.8953   -0.5432   -0.8773 H   0  0  0  0  0  0 
    1.8906   -0.5364    0.8849 H   0  0  0  0  0  0 
    1.8470    1.9067   -0.9522 H   0  0  0  0  0  0 
    3.1820    1.3822    0.0714 H   0  0  0  0  0  0 
    1.8953    3.2768    1.0803 H   0  0  0  0  0  0 
    1.8906    1.8424    2.1039 H   0  0  0  0  0  0 
   -0.3643    2.7838    0.2668 H   0  0  0  0  0  0 
   -0.3689    2.7907    2.0289 H   0  0  0  0  0  0 
   -0.3206    0.3407    2.1039 H   0  0  0  0  0  0 
   -1.6556    0.8652    1.0803 H   0  0  0  0  0  0 
  1  2  1  0
  1  6  1  0
  1  7  1  0
  1  8  1  0
  2  3  1  0
  2  9  1  0
  2 10  1  0
  3  4  1  0
  3 11  1  0
  3 12  1  0
  4  5  1  0
  4 13  1  0
  4 14  1  0
  5  6  1  0
  5 15  1  0
  5 16  1  0
  6 17  1  0
  6 18  1  0
M  END
>  <NAME>
conformer 1  Energy: -3.56077

>  <forcefield>
MMFF94

>  <energy>
-3.5608

$$$$
