
 PCMODEL  v10.0   1.00000     0.00000

 14 13  0  0  0  0              1 V2000
    0.0000    0.0000    0.0000 C   0  0  0  0  0  0 
    1.5203    0.0000   -0.0000 C   0  0  0  0  0  0 
    2.0800    1.4211   -0.0000 C   0  0  0  0  0  0 
    3.6003    1.4211   -0.0000 C   0  0  0  0  0  0 
   -0.3790   -1.0268   -0.0000 H   0  0  0  0  0  0 
   -0.3923    0.5070   -0.8874 H   0  0  0  0  0  0 
   -0.3923    0.5070    0.8874 H   0  0  0  0  0  0 
    1.8800   -0.5421   -0.8824 H   0  0  0  0  0  0 
    1.8800   -0.5421    0.8824 H   0  0  0  0  0  0 
    1.7203    1.9632    0.8824 H   0  0  0  0  0  0 
    1.7203    1.9632   -0.8824 H   0  0  0  0  0  0 
    3.9926    0.9142    0.8874 H   0  0  0  0  0  0 
    3.9793    2.4479   -0.0000 H   0  0  0  0  0  0 
    3.9926    0.9142   -0.8874 H   0  0  0  0  0  0 
  1  2  1  0
  1  5  1  0
  1  6  1  0
  1  7  1  0
  2  3  1  0
  2  8  1  0
  2  9  1  0
  3  4  1  0
  3 10  1  0
  3 11  1  0
  4 12  1  0
  4 13  1  0
  4 14  1  0
M  END
>  <NAME>
conformer 1  Energy: -5.07593

>  <forcefield>
MMFF94

>  <energy>
-5.0759

$$$$

 PCMODEL  v10.0   1.00000     0.00000

 14 13  0  0  0  0              1 V2000
    0.0000    0.0000    0.0000 C   0  0  0  0  0  0 
    1.5209   -0.0000    0.0000 C   0  0  0  0  0  0 
    2.1294    1.4026    0.0000 C   0  0  0  0  0  0 
    1.8355    2.1900    1.2676 C   0  0  0  0  0  0 
   -0.3754   -1.0244   -0.0906 H   0  0  0  0  0  0 
   -0.3930    0.5802   -0.8408 H   0  0  0  0  0  0 
   -0.4010    0.4187    0.9277 H   0  0  0  0  0  0 
    1.8697   -0.5306   -0.8940 H   0  0  0  0  0  0 
    1.8852   -0.5649    0.8660 H   0  0  0  0  0  0 
    1.7705    1.9652   -0.8697 H   0  0  0  0  0  0 
    3.2166    1.3102   -0.1090 H   0  0  0  0  0  0 
    0.7681    2.4084    1.3657 H   0  0  0  0  0  0 
    2.3688    3.1459    1.2480 H   0  0  0  0  0  0 
    2.1600    1.6395    2.1563 H   0  0  0  0  0  0 
  1  2  1  0
  1  5  1  0
  1  6  1  0
  1  7  1  0
  2  3  1  0
  2  8  1  0
  2  9  1  0
  3  4  1  0
  3 10  1  0
  3 11  1  0
  4 12  1  0
  4 13  1  0
  4 14  1  0
M  END
>  <NAME>
conformer 2  Energy: -4.29328

>  <forcefield>
MMFF94

>  <energy>
-4.2933

$$$$
