
 PCMODEL  v10.0   1.00000     0.00000

 14 13  0  0  0  0              1 V2000
   -1.8001   -0.7106    0.0000 C   0  0  0  0  0  0 
   -0.2798   -0.7106   -0.0000 C   0  0  0  0  0  0 
    0.2798    0.7106    0.0000 C   0  0  0  0  0  0 
    1.8001    0.7106   -0.0000 C   0  0  0  0  0  0 
   -2.1792   -1.7373   -0.0000 H   0  0  0  0  0  0 
   -2.1925   -0.2036   -0.8874 H   0  0  0  0  0  0 
   -2.1925   -0.2036    0.8874 H   0  0  0  0  0  0 
    0.0799   -1.2526   -0.8824 H   0  0  0  0  0  0 
    0.0799   -1.2526    0.8824 H   0  0  0  0  0  0 
   -0.0799    1.2526    0.8824 H   0  0  0  0  0  0 
   -0.0799    1.2526   -0.8824 H   0  0  0  0  0  0 
    2.1925    0.2036    0.8874 H   0  0  0  0  0  0 
    2.1792    1.7373    0.0000 H   0  0  0  0  0  0 
    2.1925    0.2036   -0.8874 H   0  0  0  0  0  0 
  1  2  1  0
  1  5  1  0
  1  6  1  0
  1  7  1  0
  2  3  1  0
  2  8  1  0
  2  9  1  0
  3  4  1  0
  3 10  1  0
  3 11  1  0
  4 12  1  0
  4 13  1  0
  4 14  1  0
M  END
>  <NAME>
conformer 1  Energy: -5.07593

>  <forcefield>
MMFF94

>  <energy>
-5.0759

$$$$

 PCMODEL  v10.0   1.00000     0.00000

 14 13  0  0  0  0              1 V2000
    0.1242   -1.5323    1.2407 C   0  0  0  0  0  0 
   -0.2466   -0.7258    0.0056 C   0  0  0  0  0  0 
    0.3035    0.7006    0.0225 C   0  0  0  0  0  0 
    1.8222    0.7644   -0.0300 C   0  0  0  0  0  0 
   -0.3698   -2.5089    1.2137 H   0  0  0  0  0  0 
   -0.1906   -1.0188    2.1546 H   0  0  0  0  0  0 
    1.2025   -1.7082    1.2959 H   0  0  0  0  0  0 
   -1.3399   -0.6763   -0.0632 H   0  0  0  0  0  0 
    0.1039   -1.2505   -0.8908 H   0  0  0  0  0  0 
   -0.0525    1.2274    0.9155 H   0  0  0  0  0  0 
   -0.0983    1.2388   -0.8443 H   0  0  0  0  0  0 
    2.2728    0.3393    0.8717 H   0  0  0  0  0  0 
    2.1519    1.8056   -0.1058 H   0  0  0  0  0  0 
    2.2085    0.2228   -0.8992 H   0  0  0  0  0  0 
  1  2  1  0
  1  5  1  0
  1  6  1  0
  1  7  1  0
  2  3  1  0
  2  8  1  0
  2  9  1  0
  3  4  1  0
  3 10  1  0
  3 11  1  0
  4 12  1  0
  4 13  1  0
  4 14  1  0
M  END
>  <NAME>
conformer 2  Energy: -4.29328

>  <forcefield>
MMFF94

>  <energy>
-4.2933

$$$$
