
 PCMODEL  v10.0   1.00000     0.00000

 43 44  0  0  0  0              1 V2000
    0.0000    0.0000    0.0000 C   0  0  0  0  0  0 
    1.5418   -0.0000   -0.0000 C   0  0  0  0  0  0 
    2.0721    1.4490    0.0000 C   0  0  0  0  0  0 
    1.5185    2.3077    1.1609 C   0  0  0  0  0  0 
   -0.0246    2.2557    1.1290 C   0  0  0  0  0  0 
   -0.5838    0.8194    1.1683 C   0  0  0  0  0  0 
    2.0872   -0.7803   -1.2111 C   0  0  0  0  0  0 
   -2.1230    0.8307    1.1121 C   0  0  0  0  0  0 
    2.1309    1.8811    2.5186 C   0  0  0  0  0  0 
    2.3581    2.1190    5.0308 C   0  0  0  0  0  0 
    1.7074    2.7070    3.7579 C   0  0  0  0  0  0 
    2.0846    4.1991    3.6290 C   0  0  0  0  0  0 
    1.7150    4.9999    4.8882 C   0  0  0  0  0  0 
    2.3474    4.3956    6.1498 C   0  0  0  0  0  0 
    1.9825    2.9114    6.2927 C   0  0  0  0  0  0 
   -0.3709   -1.0494    0.0608 H   0  0  0  0  0  0 
   -0.3719    0.4129   -0.9660 H   0  0  0  0  0  0 
    1.8974   -0.5169    0.9234 H   0  0  0  0  0  0 
    1.8021    1.9345   -0.9669 H   0  0  0  0  0  0 
    3.1858    1.4421    0.0389 H   0  0  0  0  0  0 
    1.8305    3.3626    0.9656 H   0  0  0  0  0  0 
   -0.3800    2.7565    0.1983 H   0  0  0  0  0  0 
   -0.4470    2.8514    1.9682 H   0  0  0  0  0  0 
   -0.2817    0.3385    2.1296 H   0  0  0  0  0  0 
    3.1998   -0.8117   -1.2094 H   0  0  0  0  0  0 
    1.7705   -0.3247   -2.1758 H   0  0  0  0  0  0 
    1.7321   -1.8352   -1.2111 H   0  0  0  0  0  0 
   -2.5012    1.2982    0.1757 H   0  0  0  0  0  0 
   -2.5585    1.3983    1.9648 H   0  0  0  0  0  0 
   -2.5411   -0.1996    1.1600 H   0  0  0  0  0  0 
    3.2417    1.9248    2.4317 H   0  0  0  0  0  0 
    1.8878    0.8128    2.7130 H   0  0  0  0  0  0 
    3.4670    2.1114    4.9183 H   0  0  0  0  0  0 
    2.0448    1.0569    5.1588 H   0  0  0  0  0  0 
    0.6005    2.6296    3.8780 H   0  0  0  0  0  0 
    1.5652    4.6527    2.7546 H   0  0  0  0  0  0 
    3.1781    4.2955    3.4366 H   0  0  0  0  0  0 
    0.6063    5.0230    5.0020 H   0  0  0  0  0  0 
    2.0444    6.0585    4.7721 H   0  0  0  0  0  0 
    2.0094    4.9581    7.0507 H   0  0  0  0  0  0 
    3.4556    4.5052    6.1014 H   0  0  0  0  0  0 
    2.5019    2.4790    7.1791 H   0  0  0  0  0  0 
    0.8890    2.8118    6.4845 H   0  0  0  0  0  0 
  1  2  1  0
  1  6  1  0
  1 16  1  0
  1 17  1  0
  2  3  1  0
  2  7  1  0
  2 18  1  0
  3  4  1  0
  3 19  1  0
  3 20  1  0
  4  5  1  0
  4  9  1  0
  4 21  1  0
  5  6  1  0
  5 22  1  0
  5 23  1  0
  6  8  1  0
  6 24  1  0
  7 25  1  0
  7 26  1  0
  7 27  1  0
  8 28  1  0
  8 29  1  0
  8 30  1  0
  9 11  1  0
  9 31  1  0
  9 32  1  0
 10 11  1  0
 10 15  1  0
 10 33  1  0
 10 34  1  0
 11 12  1  0
 11 35  1  0
 12 13  1  0
 12 36  1  0
 12 37  1  0
 13 14  1  0
 13 38  1  0
 13 39  1  0
 14 15  1  0
 14 40  1  0
 14 41  1  0
 15 42  1  0
 15 43  1  0
M  END
>  <NAME>
conformer 1  Energy: 28.1263

>  <forcefield>
MM3

>  <energy>
28.1263

$$$$

 PCMODEL  v10.0   1.00000     0.00000

 43 44  0  0  0  0              1 V2000
    0.0000    0.0000    0.0000 C   0  0  0  0  0  0 
    1.5408    0.0000    0.0000 C   0  0  0  0  0  0 
    2.0749    1.4482    0.0000 C   0  0  0  0  0  0 
    1.5185    2.3193    1.1514 C   0  0  0  0  0  0 
   -0.0258    2.2579    1.1180 C   0  0  0  0  0  0 
   -0.5753    0.8187    1.1718 C   0  0  0  0  0  0 
    2.0862   -0.7819   -1.2102 C   0  0  0  0  0  0 
   -2.1150    0.8188    1.1348 C   0  0  0  0  0  0 
    2.0769    1.9237    2.5513 C   0  0  0  0  0  0 
    3.6516    2.3344    4.4905 C   0  0  0  0  0  0 
    3.2911    2.7492    3.0453 C   0  0  0  0  0  0 
    4.5342    2.6041    2.1423 C   0  0  0  0  0  0 
    5.7450    3.3789    2.6879 C   0  0  0  0  0  0 
    6.0799    2.9683    4.1283 C   0  0  0  0  0  0 
    4.8543    3.1168    5.0400 C   0  0  0  0  0  0 
   -0.3715   -1.0491    0.0612 H   0  0  0  0  0  0 
   -0.3739    0.4145   -0.9645 H   0  0  0  0  0  0 
    1.8939   -0.5181    0.9236 H   0  0  0  0  0  0 
    1.8108    1.9303   -0.9702 H   0  0  0  0  0  0 
    3.1861    1.4283    0.0357 H   0  0  0  0  0  0 
    1.8099    3.3810    0.9582 H   0  0  0  0  0  0 
   -0.3875    2.7521    0.1862 H   0  0  0  0  0  0 
   -0.4434    2.8554    1.9608 H   0  0  0  0  0  0 
   -0.2547    0.3438    2.1305 H   0  0  0  0  0  0 
    3.1988   -0.8150   -1.2073 H   0  0  0  0  0  0 
    1.7711   -0.3264   -2.1754 H   0  0  0  0  0  0 
    1.7296   -1.8362   -1.2099 H   0  0  0  0  0  0 
   -2.5080    1.2792    0.2010 H   0  0  0  0  0  0 
   -2.5440    1.3871    1.9902 H   0  0  0  0  0  0 
   -2.5251   -0.2143    1.1925 H   0  0  0  0  0  0 
    2.3333    0.8418    2.5712 H   0  0  0  0  0  0 
    1.2631    2.0505    3.3024 H   0  0  0  0  0  0 
    3.8780    1.2434    4.5225 H   0  0  0  0  0  0 
    2.7749    2.4957    5.1599 H   0  0  0  0  0  0 
    2.9936    3.8265    3.0603 H   0  0  0  0  0  0 
    4.3082    2.9832    1.1201 H   0  0  0  0  0  0 
    4.8007    1.5269    2.0387 H   0  0  0  0  0  0 
    5.5328    4.4727    2.6528 H   0  0  0  0  0  0 
    6.6296    3.2061    2.0321 H   0  0  0  0  0  0 
    6.9192    3.5911    4.5156 H   0  0  0  0  0  0 
    6.4322    1.9109    4.1437 H   0  0  0  0  0  0 
    5.1017    2.7582    6.0660 H   0  0  0  0  0  0 
    4.5868    4.1947    5.1351 H   0  0  0  0  0  0 
  1  2  1  0
  1  6  1  0
  1 16  1  0
  1 17  1  0
  2  3  1  0
  2  7  1  0
  2 18  1  0
  3  4  1  0
  3 19  1  0
  3 20  1  0
  4  5  1  0
  4  9  1  0
  4 21  1  0
  5  6  1  0
  5 22  1  0
  5 23  1  0
  6  8  1  0
  6 24  1  0
  7 25  1  0
  7 26  1  0
  7 27  1  0
  8 28  1  0
  8 29  1  0
  8 30  1  0
  9 11  1  0
  9 31  1  0
  9 32  1  0
 10 11  1  0
 10 15  1  0
 10 33  1  0
 10 34  1  0
 11 12  1  0
 11 35  1  0
 12 13  1  0
 12 36  1  0
 12 37  1  0
 13 14  1  0
 13 38  1  0
 13 39  1  0
 14 15  1  0
 14 40  1  0
 14 41  1  0
 15 42  1  0
 15 43  1  0
M  END
>  <NAME>
conformer 2  Energy: 30.2965

>  <forcefield>
MM3

>  <energy>
30.2965

$$$$

 PCMODEL  v10.0   1.00000     0.00000

 43 44  0  0  0  0              1 V2000
    0.0000    0.0000    0.0000 C   0  0  0  0  0  0 
    1.5418    0.0000    0.0000 C   0  0  0  0  0  0 
    2.0628    1.4514   -0.0000 C   0  0  0  0  0  0 
    1.5339    2.2846    1.1857 C   0  0  0  0  0  0 
   -0.0121    2.2405    1.1704 C   0  0  0  0  0  0 
   -0.5818    0.8067    1.1783 C   0  0  0  0  0  0 
    2.0894   -0.7772   -1.2116 C   0  0  0  0  0  0 
   -2.1208    0.8304    1.1161 C   0  0  0  0  0  0 
    2.0930    1.8693    2.5705 C   0  0  0  0  0  0 
    3.9449    2.5657    4.1806 C   0  0  0  0  0  0 
    3.6292    2.0514    2.7572 C   0  0  0  0  0  0 
    4.4055    0.7352    2.5202 C   0  0  0  0  0  0 
    5.9175    0.9124    2.7314 C   0  0  0  0  0  0 
    6.2285    1.4551    4.1335 C   0  0  0  0  0  0 
    5.4537    2.7517    4.4080 C   0  0  0  0  0  0 
   -0.3714   -1.0498    0.0496 H   0  0  0  0  0  0 
   -0.3723    0.4237   -0.9611 H   0  0  0  0  0  0 
    1.8971   -0.5151    0.9243 H   0  0  0  0  0  0 
    1.7509    1.9451   -0.9500 H   0  0  0  0  0  0 
    3.1743    1.4651   -0.0125 H   0  0  0  0  0  0 
    1.8383    3.3477    1.0159 H   0  0  0  0  0  0 
   -0.3792    2.7729    0.2620 H   0  0  0  0  0  0 
   -0.4123    2.8096    2.0408 H   0  0  0  0  0  0 
   -0.2884    0.3055    2.1318 H   0  0  0  0  0  0 
    3.2021   -0.8066   -1.2086 H   0  0  0  0  0  0 
    1.7728   -0.3206   -2.1758 H   0  0  0  0  0  0 
    1.7363   -1.8328   -1.2133 H   0  0  0  0  0  0 
   -2.4916    1.3162    0.1861 H   0  0  0  0  0  0 
   -2.5558    1.3867    1.9763 H   0  0  0  0  0  0 
   -2.5467   -0.1976    1.1448 H   0  0  0  0  0  0 
    1.8134    0.8204    2.8104 H   0  0  0  0  0  0 
    1.5739    2.4920    3.3357 H   0  0  0  0  0  0 
    3.5418    1.8525    4.9366 H   0  0  0  0  0  0 
    3.4296    3.5392    4.3535 H   0  0  0  0  0  0 
    3.9885    2.8181    2.0293 H   0  0  0  0  0  0 
    4.2281    0.3551    1.4906 H   0  0  0  0  0  0 
    4.0296   -0.0525    3.2134 H   0  0  0  0  0  0 
    6.3223    1.6099    1.9618 H   0  0  0  0  0  0 
    6.4366   -0.0626    2.5816 H   0  0  0  0  0  0 
    7.3232    1.6377    4.2361 H   0  0  0  0  0  0 
    5.9588    0.6902    4.8981 H   0  0  0  0  0  0 
    5.6394    3.0871    5.4546 H   0  0  0  0  0  0 
    5.8336    3.5613    3.7425 H   0  0  0  0  0  0 
  1  2  1  0
  1  6  1  0
  1 16  1  0
  1 17  1  0
  2  3  1  0
  2  7  1  0
  2 18  1  0
  3  4  1  0
  3 19  1  0
  3 20  1  0
  4  5  1  0
  4  9  1  0
  4 21  1  0
  5  6  1  0
  5 22  1  0
  5 23  1  0
  6  8  1  0
  6 24  1  0
  7 25  1  0
  7 26  1  0
  7 27  1  0
  8 28  1  0
  8 29  1  0
  8 30  1  0
  9 11  1  0
  9 31  1  0
  9 32  1  0
 10 11  1  0
 10 15  1  0
 10 33  1  0
 10 34  1  0
 11 12  1  0
 11 35  1  0
 12 13  1  0
 12 36  1  0
 12 37  1  0
 13 14  1  0
 13 38  1  0
 13 39  1  0
 14 15  1  0
 14 40  1  0
 14 41  1  0
 15 42  1  0
 15 43  1  0
M  END
>  <NAME>
conformer 3  Energy: 30.3975

>  <forcefield>
MM3

>  <energy>
30.3975

$$$$
