
 PCMODEL  v10.0   1.00000     0.00000

 14 13  0  0  0  0              1 V2000
    1.6948   -0.9956    0.7961 C   0  0  0  0  0  0 
    0.7339   -0.0204    0.1039 C   0  0  0  0  0  0 
    1.2967    1.4075    0.0357 C   0  0  0  0  0  0 
    0.3357    2.3827   -0.6564 C   0  0  0  0  0  0 
    1.2704   -2.0239    0.8361 H   0  0  0  0  0  0 
    1.9088   -0.6847    1.8430 H   0  0  0  0  0  0 
    2.6682   -1.0597    0.2604 H   0  0  0  0  0  0 
   -0.2376   -0.0117    0.6503 H   0  0  0  0  0  0 
    0.5192   -0.3854   -0.9271 H   0  0  0  0  0  0 
    2.2681    1.3988   -0.5106 H   0  0  0  0  0  0 
    1.5113    1.7726    1.0667 H   0  0  0  0  0  0 
    0.1217    2.0719   -1.7034 H   0  0  0  0  0  0 
    0.7601    3.4110   -0.6964 H   0  0  0  0  0  0 
   -0.6377    2.4468   -0.1208 H   0  0  0  0  0  0 
  1  2  1  0
  1  5  1  0
  1  6  1  0
  1  7  1  0
  2  3  1  0
  2  8  1  0
  2  9  1  0
  3  4  1  0
  3 10  1  0
  3 11  1  0
  4 12  1  0
  4 13  1  0
  4 14  1  0
M  END
>  <NAME>
conformer 1  Energy: 3.08629

>  <forcefield>
MM3

>  <energy>
3.0863

$$$$

 PCMODEL  v10.0   1.00000     0.00000

 14 13  0  0  0  0              1 V2000
   -0.9700   -1.0451   -1.2791 C   0  0  0  0  0  0 
   -0.1875   -0.7521    0.0080 C   0  0  0  0  0  0 
    0.3451    0.6879    0.0925 C   0  0  0  0  0  0 
   -0.7598    1.7498    0.1722 C   0  0  0  0  0  0 
   -1.2764   -2.1140   -1.3308 H   0  0  0  0  0  0 
   -0.3605   -0.8324   -2.1856 H   0  0  0  0  0  0 
   -1.8985   -0.4368   -1.3483 H   0  0  0  0  0  0 
    0.6723   -1.4595    0.0733 H   0  0  0  0  0  0 
   -0.8344   -0.9620    0.8910 H   0  0  0  0  0  0 
    0.9964    0.8960   -0.7876 H   0  0  0  0  0  0 
    0.9959    0.7798    0.9935 H   0  0  0  0  0  0 
   -1.3810    1.7729   -0.7499 H   0  0  0  0  0  0 
   -0.3314    2.7690    0.3020 H   0  0  0  0  0  0 
   -1.4417    1.5666    1.0324 H   0  0  0  0  0  0 
  1  2  1  0
  1  5  1  0
  1  6  1  0
  1  7  1  0
  2  3  1  0
  2  8  1  0
  2  9  1  0
  3  4  1  0
  3 10  1  0
  3 11  1  0
  4 12  1  0
  4 13  1  0
  4 14  1  0
M  END
>  <NAME>
conformer 2  Energy: 3.89537

>  <forcefield>
MM3

>  <energy>
3.8954

$$$$
